Version 4
SHEET 1 4608 752
WIRE 592 -496 368 -496
WIRE 992 -496 592 -496
WIRE 1216 -496 992 -496
WIRE 1392 -496 1216 -496
WIRE 1616 -496 1392 -496
WIRE 1808 -496 1616 -496
WIRE 1216 -480 1216 -496
WIRE 592 -464 592 -496
WIRE 992 -384 992 -496
WIRE 368 -368 368 -496
WIRE 1216 -336 1216 -400
WIRE 1216 -336 1056 -336
WIRE 592 -320 592 -384
WIRE 592 -320 432 -320
WIRE 1616 -304 1616 -496
WIRE 1216 -256 1216 -336
WIRE 1552 -256 1392 -256
WIRE 592 -240 592 -320
WIRE 1808 -224 1808 -496
WIRE 992 -208 992 -288
WIRE 1152 -208 992 -208
WIRE 368 -192 368 -272
WIRE 528 -192 368 -192
WIRE 992 -176 992 -208
WIRE 1616 -176 1616 -208
WIRE 1744 -176 1616 -176
WIRE 368 -160 368 -192
WIRE 1616 -160 1616 -176
WIRE 1216 -112 1216 -160
WIRE 1392 -112 1392 -256
WIRE 1392 -112 1216 -112
WIRE 1808 -112 1808 -128
WIRE 256 -80 256 -96
WIRE 992 -80 992 -96
WIRE 368 -64 368 -80
WIRE 1216 -64 1216 -112
WIRE 1616 -16 1616 -80
WIRE 1808 -16 1808 -32
WIRE 1808 -16 1616 -16
WIRE 2224 -16 1808 -16
WIRE 2272 -16 2224 -16
WIRE 2384 -16 2336 -16
WIRE 1392 16 1392 -112
WIRE 1808 16 1808 -16
WIRE 2384 16 2384 -16
WIRE 256 32 256 0
WIRE 256 64 256 32
WIRE 1216 64 1216 16
WIRE 1328 64 1216 64
WIRE 1616 64 1616 -16
WIRE 2224 96 2224 -16
WIRE 2224 96 2176 96
WIRE 1216 112 1216 64
WIRE 1808 112 1808 96
WIRE 2384 128 2384 96
WIRE 2224 144 2224 96
WIRE 1616 160 1616 144
WIRE 1744 160 1616 160
WIRE 256 192 256 144
WIRE 1616 192 1616 160
WIRE 592 208 592 -144
WIRE 592 208 480 208
WIRE 704 208 592 208
WIRE 1216 240 1216 192
WIRE 1392 240 1392 112
WIRE 1392 240 1216 240
WIRE 1552 240 1392 240
WIRE 480 272 480 208
WIRE 704 272 704 208
WIRE 2176 272 2176 96
WIRE 2224 272 2224 224
WIRE 2224 272 2176 272
WIRE 416 320 208 320
WIRE 2032 320 768 320
WIRE 2112 320 2032 320
WIRE 2224 320 2224 272
WIRE 2224 320 2192 320
WIRE 208 352 208 320
WIRE 1024 384 960 384
WIRE 1216 384 1216 240
WIRE 1216 384 1088 384
WIRE 2032 384 2032 320
WIRE 1216 400 1216 384
WIRE 208 448 208 432
WIRE 480 448 480 368
WIRE 960 448 960 384
WIRE 960 448 480 448
WIRE 1152 448 960 448
WIRE 2032 496 2032 464
WIRE 480 560 480 448
WIRE 704 560 704 368
WIRE 1216 560 1216 496
WIRE 480 688 480 640
WIRE 704 688 704 640
WIRE 704 688 480 688
WIRE 1216 688 1216 640
WIRE 1216 688 704 688
WIRE 1392 688 1216 688
WIRE 1616 688 1616 288
WIRE 1616 688 1392 688
WIRE 1808 688 1808 208
WIRE 1808 688 1616 688
FLAG 256 32 0
FLAG 256 -96 vcc
FLAG 1392 -496 vcc
FLAG 256 192 vee
FLAG 1392 688 vee
FLAG 208 448 0
FLAG 2384 128 0
FLAG 992 -80 0
FLAG 2032 496 0
FLAG 368 -64 0
FLAG 2384 -16 Vo
FLAG 208 320 Vi
SYMBOL voltage 256 -96 R0
WINDOW 123 0 0 Left 2
WINDOW 39 0 0 Left 2
SYMATTR InstName V1
SYMATTR Value 35
SYMBOL voltage 256 48 R0
WINDOW 123 0 0 Left 2
WINDOW 39 0 0 Left 2
SYMATTR InstName V2
SYMATTR Value 35
SYMBOL voltage 208 336 R0
WINDOW 123 24 124 Left 2
WINDOW 39 0 0 Left 2
SYMATTR Value2 AC 1
SYMATTR InstName V3
SYMATTR Value SINE(0 1m 1k)
SYMBOL npn 1152 400 R0
SYMATTR InstName Q3
SYMATTR Value 2N5550
SYMBOL res 1200 -80 R0
SYMATTR InstName R4
SYMATTR Value 1k2
SYMBOL res 1200 96 R0
SYMATTR InstName R5
SYMATTR Value 518
SYMBOL res 2368 0 R0
SYMATTR InstName R16
SYMATTR Value 4
SYMBOL res 464 544 R0
SYMATTR InstName R1
SYMATTR Value 1k
SYMBOL pnp 416 368 M180
SYMATTR InstName Q1
SYMATTR Value 2N5401
SYMBOL pnp 768 368 R180
SYMATTR InstName Q2
SYMATTR Value 2N5401
SYMBOL npn 1328 16 R0
SYMATTR InstName Q4
SYMATTR Value 2N5550
SYMBOL res 1200 544 R0
SYMATTR InstName R3
SYMATTR Value 22
SYMBOL pnp 1152 -160 M180
SYMATTR InstName Q9
SYMATTR Value 2N5401
SYMBOL pnp 1056 -288 R180
WINDOW 0 82 33 Left 2
SYMATTR InstName Q10
SYMATTR Value 2N5401
SYMBOL res 1200 -496 R0
SYMATTR InstName R12
SYMATTR Value 62
SYMBOL res 976 -192 R0
SYMATTR InstName R13
SYMATTR Value 33k
SYMBOL res 2208 304 R90
WINDOW 0 0 56 VBottom 2
WINDOW 3 32 56 VTop 2
SYMATTR InstName R10
SYMATTR Value 150k
SYMBOL res 2048 480 R180
WINDOW 0 36 76 Left 2
WINDOW 3 36 40 Left 2
SYMATTR InstName R11
SYMATTR Value 1k
SYMBOL cap 1088 368 R90
WINDOW 0 0 32 VBottom 2
WINDOW 3 32 32 VTop 2
SYMATTR InstName C1
SYMATTR Value 300p
SYMBOL npn 1552 -304 R0
SYMATTR InstName Q5
SYMATTR Value MJE243C
SYMBOL npn 1744 -224 R0
SYMATTR InstName Q7
SYMATTR Value mjl21194C
SYMBOL pnp 1552 288 M180
SYMATTR InstName Q6
SYMATTR Value MJE253C
SYMBOL pnp 1744 208 M180
SYMATTR InstName Q8
SYMATTR Value mjl21193C
SYMBOL res 1600 -176 R0
SYMATTR InstName R6
SYMATTR Value 22
SYMBOL res 1600 48 R0
SYMATTR InstName R7
SYMATTR Value 22
SYMBOL res 1792 -128 R0
SYMATTR InstName R8
SYMATTR Value 0.22
SYMBOL res 1792 0 R0
SYMATTR InstName R9
SYMATTR Value 0.22
SYMBOL res 688 544 R0
SYMATTR InstName R2
SYMATTR Value 1k
SYMBOL cap 2336 -32 R90
WINDOW 0 0 32 VBottom 2
WINDOW 3 32 32 VTop 2
SYMATTR InstName C2
SYMATTR Value 4700µ
SYMBOL pnp 528 -144 M180
SYMATTR InstName Q11
SYMATTR Value 2N5401
SYMBOL pnp 432 -272 R180
WINDOW 0 82 33 Left 2
SYMATTR InstName Q12
SYMATTR Value 2N5401
SYMBOL res 576 -480 R0
SYMATTR InstName R14
SYMATTR Value 330
SYMBOL res 352 -176 R0
SYMATTR InstName R15
SYMATTR Value 33k
SYMBOL ind 2208 128 R0
SYMATTR InstName L1
SYMATTR Value 1G
TEXT 176 568 Left 2 ;.ac dec 1000 1 1000000
TEXT 3552 -904 Left 2 !* MJL21193C - created November 22, 2010 copyright Cordell Audio\n.MODEL mjl21193C pnp\n+               IS=1.6e-12      BF=110                          VAF=300         \n+               IKF=4                           ISE=5e-12       NE=1.5                          NF=0.95\n+               RB=2.0                          RBM=2.0                         IRB=10                          RC=0.06\n+               CJE=13e-9       MJE=0.35        VJE=0.5                         RE=0.001\n+               CJC=1.5e-9      MJC=0.5                         VJC=0.6                         FC=0.5\n+               TF=24e-9        XTF=1.0         VTF=10                          ITF=10\n+               TR=100e-9       BR=5                            VAR=100         NR=1.1\n+               EG=1.1                          XCJC=0.96       XTB=0.1                         XTI=1.0         \n+               NC=4                            ISC=0.3e-12     mfg=CA112210 \n*\n*\n* MJL21194C - created November 22, 2010 copyright Cordell Audio\n.MODEL mjl21194C npn\n+               IS=4e-12        BF=70                           VAF=500         \n+               IKF=14                          ISE=1.2e-9      NE=2.0                          NF=1.01\n+               RB=3.4                          RBM=0.1         IRB=1.0         RC=0.06\n+               CJE=8e-9        MJE=0.35        VJE=0.5                         RE=0.01\n+               CJC=1.2e-9      MJC=0.5                         VJC=0.6                         FC=0.5\n+               TF=21e-9        XTF=90                          VTF=10                          ITF=100\n+               TR=100e-9       BR=5                            VAR=100         NR=1.1\n+               EG=1.1                          XCJC=0.96       XTB=0.1                         XTI=1.0         \n+               NC=4                            ISC=0.3e-12     mfg=CA112210
TEXT 3560 -152 Left 2 !* MJE243C - created March 11, 2011 copyright Cordell Audio\n.MODEL MJE243C npn\n+IS=800e-15     BF=190                          VAF=1177\n+IKF=1.2        ISE=10e-12      NE=1.7                          NF=1.06\n+RB=45                          RC=0.2                          RE=0.01\n+CJE=210e-12    MJE=0.4                         VJE=1.0\n+CJC=85e-12     MJC=0.3                         VJC=0.4                         FC=0.58\n+TF=3300e-12    XTF=7                           VTF=11                          ITF=5\n+TR=1000e-9     BR=1.7                          IKR=1.0\n+EG=1.05        XTB=1.2                         XTI=0.8                         NC=2.9\n+ISC=1e-16      NR=1.04                         VAR=140                         IRB=5e-5\n+RBM=0.001      XCJC=0.8        mfg=CA031111\n*\n*\n* MJE253C - created April 16, 2011 copyright Cordell Audio\n.MODEL MJE253C pnp\n+IS=300e-15     BF=150                          VAF=310\n+IKF=1.2        ISE=30e-12      NE=2                            NF=1.015\n+RB=40                          RC=0.3                          RE=0.01\n+CJE=150e-12    MJE=0.35        VJE=1.0\n+CJC=55e-12     MJC=0.2                         VJC=0.35        FC=0.55\n+TF=3300e-12    XTF=7                           VTF=10                          ITF=5\n+TR=1000e-9     BR=4                            IKR=4.4\n+EG=1.05        XTB=1.3                         XTI=0.01        NC=2.9\n+ISC=6e-13      NR=1.15                         VAR=50                          IRB=7e-6\n+RBM=0.001      XCJC=0.8        mfg=CA041611
TEXT 174 600 Left 2 !.tran 20m
